Circuit: * Question 3

Per .tran options, skipping operating point for transient analysis.

Date: Fri Aug 18 10:54:11 2017
Total elapsed time: 0.016 seconds.

tnom = 27
temp = 27
method = modified trap
totiter = 2180
traniter = 2180
tranpoints = 1091
accept = 1090
rejected = 1
matrix size = 4
fillins = 0
solver = Normal
Matrix Compiler1:       6 opcodes  0.0/[0.0]/0.1
Matrix Compiler2: 248 bytes object code size  0.0/0.1/[0.0]

