Circuit: * Question 4

Per .tran options, skipping operating point for transient analysis.

Date: Fri Sep 01 10:50:21 2017
Total elapsed time: 0.078 seconds.

tnom = 27
temp = 27
method = modified trap
totiter = 2118
traniter = 2118
tranpoints = 1060
accept = 1059
rejected = 1
matrix size = 1
fillins = 0
solver = Normal
Matrix Compiler1: off  [0.0]/0.0/0.1
Matrix Compiler2: 43 bytes object code size  0.0/0.0/[0.0]

