Stray ".ends" card: .ends
Circuit: * question2


Date: Mon Sep 11 16:10:27 2017
Total elapsed time: 0.021 seconds.

tnom = 27
temp = 27
method = trap
totiter = 0
traniter = 0
tranpoints = 0
accept = 0
rejected = 0
matrix size = 7
fillins = 11
solver = Normal

