Stray ".ends" card: .ends
Circuit: * question1


Date: Mon Sep 11 16:07:19 2017
Total elapsed time: 0.122 seconds.

tnom = 27
temp = 27
method = trap
totiter = 0
traniter = 0
tranpoints = 0
accept = 0
rejected = 0
matrix size = 6
fillins = 5
solver = Normal

