Circuit: * question1

.OP point found by inspection.

Date: Wed Sep 20 14:10:18 2017
Total elapsed time: 0.048 seconds.

tnom = 27
temp = 27
method = modified trap
totiter = 2244
traniter = 2244
tranpoints = 1123
accept = 1104
rejected = 19
matrix size = 5
fillins = 0
solver = Normal
Matrix Compiler1: 132 bytes object code size  0.0/0.1/[0.0]
Matrix Compiler2: 295 bytes object code size  0.0/0.1/[0.0]

