Circuit: *question3

.OP point found by inspection.
.step rload=1
.step rload=11
.step rload=21
.step rload=31
.step rload=41
.step rload=51
.step rload=61
.step rload=71
.step rload=81
.step rload=91
.step rload=100

Date: Wed Sep 20 14:14:27 2017
Total elapsed time: 0.891 seconds.

tnom = 27
temp = 27
method = modified trap
totiter = 2124
traniter = 2124
tranpoints = 1063
accept = 1061
rejected = 2
matrix size = 5
fillins = 1
solver = Normal
Matrix Compiler1: 276 bytes object code size  0.5/0.4/[0.1]
Matrix Compiler2: 351 bytes object code size  0.3/0.5/[0.2]

